<?xml version="1.0" encoding="UTF-8"?>

<!-- generated on 2024-11-23 20:24:20 by Eclipse SUMO netedit Version 1.21.0
<neteditConfiguration xmlns:xsi="http://www.w3.org/2001/XMLSchema-instance" xsi:noNamespaceSchemaLocation="http://sumo.dlr.de/xsd/neteditConfiguration.xsd">

    <input>
        <sumo-net-file value="C:\Users\t_om\Downloads\dynamic_traffic_control_masters\sumo_new_network_8_24.net.xml"/>
    </input>

    <output>
        <output-file value="C:\Users\t_om\Downloads\dynamic_traffic_control_masters\sumo_new_network_8_24.net.xml"/>
        <output.street-names value="true"/>
    </output>

    <processing>
        <geometry.min-radius.fix.railways value="false"/>
        <geometry.max-grade.fix value="false"/>
        <offset.disable-normalization value="true"/>
        <lefthand value="0"/>
    </processing>

    <junctions>
        <no-turnarounds value="true"/>
        <junctions.corner-detail value="5"/>
        <junctions.limit-turn-speed value="5.50"/>
        <rectangular-lane-cut value="0"/>
    </junctions>

    <pedestrian>
        <walkingareas value="0"/>
    </pedestrian>

</neteditConfiguration>
-->

<net version="1.20" junctionCornerDetail="5" limitTurnSpeed="5.50" xmlns:xsi="http://www.w3.org/2001/XMLSchema-instance" xsi:noNamespaceSchemaLocation="http://sumo.dlr.de/xsd/net_file.xsd">

    <location netOffset="-439947.95,-4617389.40" convBoundary="5693.39,2696.71,8735.64,5539.67" origBoundary="-87.775831,41.653409,-87.547714,41.848495" projParameter="+proj=utm +zone=16 +ellps=WGS84 +datum=WGS84 +units=m +no_defs"/>

    <type id="highway.motorway" priority="14" numLanes="2" speed="39.44" allow="private emergency authority army vip passenger hov taxi bus coach delivery truck trailer motorcycle evehicle custom1 custom2" oneway="1"/>
    <type id="highway.motorway_link" priority="9" numLanes="1" speed="22.22" allow="private emergency authority army vip passenger hov taxi bus coach delivery truck trailer motorcycle evehicle custom1 custom2" oneway="1"/>
    <type id="highway.residential" priority="3" numLanes="1" speed="13.89" disallow="tram rail_urban rail rail_electric rail_fast ship container cable_car subway aircraft wheelchair scooter drone" oneway="0"/>
    <type id="highway.secondary" priority="11" numLanes="1" speed="27.78" disallow="tram rail_urban rail rail_electric rail_fast ship container cable_car subway aircraft wheelchair scooter drone" oneway="0"/>
    <type id="highway.tertiary" priority="10" numLanes="1" speed="22.22" disallow="tram rail_urban rail rail_electric rail_fast ship container cable_car subway aircraft wheelchair scooter drone" oneway="0"/>

    <edge id=":1889135736_0" function="internal">
        <lane id=":1889135736_0_0" index="0" allow="private emergency authority army vip passenger hov taxi bus coach delivery truck trailer motorcycle evehicle custom1 custom2" speed="25.00" length="21.33" shape="8024.26,5003.42 8023.14,4999.58 8021.03,4995.20 8019.08,4989.73 8018.43,4982.64"/>
        <lane id=":1889135736_0_1" index="1" allow="private emergency authority army vip passenger hov taxi bus coach delivery truck trailer motorcycle evehicle custom1 custom2" speed="25.00" length="21.33" shape="8024.26,5003.42 8023.65,4999.55 8022.64,4995.13 8021.78,4989.69 8021.62,4982.79"/>
    </edge>
    <edge id=":1889135736_2" function="internal">
        <lane id=":1889135736_2_0" index="0" disallow="tram rail_urban rail rail_electric rail_fast ship container cable_car subway aircraft wheelchair scooter drone" speed="27.78" length="20.91" shape="8014.24,5003.37 8015.23,4982.49"/>
        <lane id=":1889135736_2_1" index="1" disallow="tram rail_urban rail rail_electric rail_fast ship container cable_car subway aircraft wheelchair scooter drone" speed="27.78" length="20.91" shape="8017.44,5003.52 8018.43,4982.64"/>
        <lane id=":1889135736_2_2" index="2" disallow="tram rail_urban rail rail_electric rail_fast ship container cable_car subway aircraft wheelchair scooter drone" speed="27.78" length="20.91" shape="8020.63,5003.67 8021.62,4982.79"/>
    </edge>
    <edge id=":2350159674_0" function="internal">
        <lane id=":2350159674_0_0" index="0" disallow="tram rail_urban rail rail_electric rail_fast ship container cable_car subway aircraft wheelchair scooter drone" speed="27.78" length="1.60" shape="8023.79,4163.58 8025.39,4163.60"/>
        <lane id=":2350159674_0_1" index="1" disallow="tram rail_urban rail rail_electric rail_fast ship container cable_car subway aircraft wheelchair scooter drone" speed="27.78" length="1.60" shape="8026.99,4163.61 8028.59,4163.63"/>
        <lane id=":2350159674_0_2" index="2" disallow="tram rail_urban rail rail_electric rail_fast ship container cable_car subway aircraft wheelchair scooter drone" speed="27.78" length="1.60" shape="8030.19,4163.65 8031.79,4163.67"/>
        <lane id=":2350159674_0_3" index="3" disallow="tram rail_urban rail rail_electric rail_fast ship container cable_car subway aircraft wheelchair scooter drone" speed="27.78" length="1.60" shape="8033.39,4163.68 8034.99,4163.70"/>
    </edge>
    <edge id=":2425912958_0" function="internal">
        <lane id=":2425912958_0_0" index="0" disallow="tram rail_urban rail rail_electric rail_fast ship container cable_car subway aircraft wheelchair scooter drone" speed="22.22" length="0.29" shape="6937.75,5517.26 6937.67,5517.25 6937.62,5517.23 6937.57,5517.21 6937.48,5517.20"/>
        <lane id=":2425912958_0_1" index="1" disallow="tram rail_urban rail rail_electric rail_fast ship container cable_car subway aircraft wheelchair scooter drone" speed="22.22" length="0.29" shape="6937.80,5514.06 6937.71,5514.05 6937.65,5514.03 6937.59,5514.01 6937.50,5514.00"/>
    </edge>
    <edge id=":2425912958_2" function="internal">
        <lane id=":2425912958_2_0" index="0" disallow="tram rail_urban rail rail_electric rail_fast ship container cable_car subway aircraft wheelchair scooter drone" speed="22.22" length="0.35" shape="6937.54,5507.70 6937.65,5507.69 6937.72,5507.68 6937.79,5507.66 6937.90,5507.66"/>
        <lane id=":2425912958_2_1" index="1" disallow="tram rail_urban rail rail_electric rail_fast ship container cable_car subway aircraft wheelchair scooter drone" speed="22.22" length="0.35" shape="6937.52,5510.90 6937.62,5510.89 6937.69,5510.88 6937.75,5510.86 6937.85,5510.86"/>
    </edge>
    <edge id=":261093229_0" function="internal">
        <lane id=":261093229_0_0" index="0" allow="private emergency authority army vip passenger hov taxi bus coach delivery truck trailer motorcycle evehicle custom1 custom2" speed="22.22" length="3.09" shape="8040.77,4637.80 8040.72,4634.72"/>
    </edge>
    <edge id=":261093229_1" function="internal">
        <lane id=":261093229_1_0" index="0" allow="private emergency authority army vip passenger hov taxi bus coach delivery truck trailer motorcycle evehicle custom1 custom2" speed="22.22" length="3.11" shape="8037.39,4637.81 8037.52,4634.70"/>
    </edge>
    <edge id=":261105412_0" function="internal">
        <lane id=":261105412_0_0" index="0" disallow="tram rail_urban rail rail_electric rail_fast ship container cable_car subway aircraft wheelchair scooter drone" speed="27.78" length="8.74" shape="7981.54,5500.89 7981.13,5498.41 7980.10,5496.82 7979.09,5495.23 7978.75,5492.75"/>
        <lane id=":261105412_0_1" index="1" disallow="tram rail_urban rail rail_electric rail_fast ship container cable_car subway aircraft wheelchair scooter drone" speed="27.78" length="8.74" shape="7984.73,5501.00 7984.32,5498.55 7983.29,5496.98 7982.29,5495.41 7981.95,5492.96"/>
    </edge>
    <edge id=":261114663_0" function="internal">
        <lane id=":261114663_0_0" index="0" disallow="tram rail_urban rail rail_electric rail_fast ship container cable_car subway aircraft wheelchair scooter drone" speed="3.65" length="4.67" shape="5717.68,3477.39 5718.50,3476.20 5719.30,3475.81 5720.10,3476.22 5720.88,3477.43"/>
    </edge>
    <edge id=":261116428_0" function="internal">
        <lane id=":261116428_0_0" index="0" disallow="tram rail_urban rail rail_electric rail_fast ship container cable_car subway aircraft wheelchair scooter drone" speed="22.22" length="0.30" shape="5697.66,5295.17 5697.66,5295.47"/>
    </edge>
    <edge id=":261116428_1" function="internal">
        <lane id=":261116428_1_0" index="0" disallow="tram rail_urban rail rail_electric rail_fast ship container cable_car subway aircraft wheelchair scooter drone" speed="3.65" length="2.34" shape="5697.66,5295.17 5696.85,5296.36 5696.04,5296.75"/>
    </edge>
    <edge id=":261116428_4" function="internal">
        <lane id=":261116428_4_0" index="0" disallow="tram rail_urban rail rail_electric rail_fast ship container cable_car subway aircraft wheelchair scooter drone" speed="3.65" length="2.34" shape="5696.04,5296.75 5695.25,5296.34 5694.46,5295.13"/>
    </edge>
    <edge id=":261116428_2" function="internal">
        <lane id=":261116428_2_0" index="0" disallow="tram rail_urban rail rail_electric rail_fast ship container cable_car subway aircraft wheelchair scooter drone" speed="22.22" length="0.30" shape="5694.46,5295.43 5694.46,5295.13"/>
    </edge>
    <edge id=":261116428_3" function="internal">
        <lane id=":261116428_3_0" index="0" disallow="tram rail_urban rail rail_electric rail_fast ship container cable_car subway aircraft wheelchair scooter drone" speed="3.65" length="2.34" shape="5694.46,5295.43 5695.27,5294.24 5696.08,5293.85"/>
    </edge>
    <edge id=":261116428_5" function="internal">
        <lane id=":261116428_5_0" index="0" disallow="tram rail_urban rail rail_electric rail_fast ship container cable_car subway aircraft wheelchair scooter drone" speed="3.65" length="2.34" shape="5696.08,5293.85 5696.87,5294.26 5697.66,5295.47"/>
    </edge>
    <edge id=":261116445_0" function="internal">
        <lane id=":261116445_0_0" index="0" disallow="tram rail_urban rail rail_electric rail_fast ship container cable_car subway aircraft wheelchair scooter drone" speed="6.94" length="9.43" shape="7983.57,5323.82 7986.20,5323.51 7988.18,5322.53 7989.51,5320.86 7990.20,5318.52"/>
    </edge>
    <edge id=":261116445_1" function="internal">
        <lane id=":261116445_1_0" index="0" disallow="tram rail_urban rail rail_electric rail_fast ship container cable_car subway aircraft wheelchair scooter drone" speed="3.65" length="4.67" shape="7983.57,5323.82 7984.76,5324.63 7985.15,5325.44 7984.74,5326.23 7983.54,5327.02"/>
    </edge>
    <edge id=":261116445_2" function="internal">
        <lane id=":261116445_2_0" index="0" disallow="tram rail_urban rail rail_electric rail_fast ship container cable_car subway aircraft wheelchair scooter drone" speed="6.44" length="9.03" shape="7988.94,5332.73 7988.70,5330.25 7987.71,5328.48 7985.99,5327.40 7983.54,5327.02"/>
    </edge>
    <edge id=":261116445_3" function="internal">
        <lane id=":261116445_3_0" index="0" disallow="tram rail_urban rail rail_electric rail_fast ship container cable_car subway aircraft wheelchair scooter drone" speed="27.78" length="14.13" shape="7988.94,5332.73 7989.13,5328.50 7989.32,5325.60 7989.64,5322.72 7990.20,5318.52"/>
        <lane id=":261116445_3_1" index="1" disallow="tram rail_urban rail rail_electric rail_fast ship container cable_car subway aircraft wheelchair scooter drone" speed="27.78" length="14.13" shape="7992.14,5332.87 7992.33,5328.73 7992.51,5325.89 7992.82,5323.07 7993.37,5318.96"/>
    </edge>
    <edge id=":261116446_0" function="internal">
        <lane id=":261116446_0_0" index="0" disallow="tram rail_urban rail rail_electric rail_fast ship container cable_car subway aircraft wheelchair scooter drone" speed="13.89" length="11.17" shape="7922.23,5326.36 7911.07,5326.24"/>
    </edge>
    <edge id=":261116446_1" function="internal">
        <lane id=":261116446_1_0" index="0" disallow="tram rail_urban rail rail_electric rail_fast ship container cable_car subway aircraft wheelchair scooter drone" speed="3.65" length="1.44" shape="7922.23,5326.36 7921.04,5325.55"/>
    </edge>
    <edge id=":261116446_6" function="internal">
        <lane id=":261116446_6_0" index="0" disallow="tram rail_urban rail rail_electric rail_fast ship container cable_car subway aircraft wheelchair scooter drone" speed="3.65" length="3.23" shape="7921.04,5325.55 7920.65,5324.74 7921.06,5323.95 7922.27,5323.16"/>
    </edge>
    <edge id=":261116446_2" function="internal">
        <lane id=":261116446_2_0" index="0" disallow="tram rail_urban rail rail_electric rail_fast ship container cable_car subway aircraft wheelchair scooter drone" speed="6.51" length="9.02" shape="7916.73,5317.51 7917.06,5319.96 7918.09,5321.72 7919.83,5322.78 7922.27,5323.16"/>
    </edge>
    <edge id=":261116446_3" function="internal">
        <lane id=":261116446_3_0" index="0" disallow="tram rail_urban rail rail_electric rail_fast ship container cable_car subway aircraft wheelchair scooter drone" speed="7.31" length="11.71" shape="7916.73,5317.51 7916.35,5321.35 7915.28,5324.09 7913.52,5325.72 7911.07,5326.24"/>
    </edge>
    <edge id=":261116446_4" function="internal">
        <lane id=":261116446_4_0" index="0" disallow="tram rail_urban rail rail_electric rail_fast ship container cable_car subway aircraft wheelchair scooter drone" speed="13.89" length="11.17" shape="7911.10,5323.04 7922.27,5323.16"/>
    </edge>
    <edge id=":261116446_5" function="internal">
        <lane id=":261116446_5_0" index="0" disallow="tram rail_urban rail rail_electric rail_fast ship container cable_car subway aircraft wheelchair scooter drone" speed="3.65" length="1.44" shape="7911.10,5323.04 7912.29,5323.85"/>
    </edge>
    <edge id=":261116446_7" function="internal">
        <lane id=":261116446_7_0" index="0" disallow="tram rail_urban rail rail_electric rail_fast ship container cable_car subway aircraft wheelchair scooter drone" speed="3.65" length="3.23" shape="7912.29,5323.85 7912.68,5324.66 7912.27,5325.45 7911.07,5326.24"/>
    </edge>
    <edge id=":261116447_0" function="internal">
        <lane id=":261116447_0_0" index="0" disallow="tram rail_urban rail rail_electric rail_fast ship container cable_car subway aircraft wheelchair scooter drone" speed="3.65" length="4.67" shape="7849.34,5325.57 7848.15,5324.76 7847.76,5323.95 7848.17,5323.16 7849.38,5322.37"/>
    </edge>
    <edge id=":261137905_0" function="internal">
        <lane id=":261137905_0_0" index="0" disallow="tram rail_urban rail rail_electric rail_fast ship container cable_car subway aircraft wheelchair scooter drone" speed="22.22" length="0.10" shape="5707.97,4487.79 5707.97,4487.79"/>
    </edge>
    <edge id=":261137905_1" function="internal">
        <lane id=":261137905_1_0" index="0" disallow="tram rail_urban rail rail_electric rail_fast ship container cable_car subway aircraft wheelchair scooter drone" speed="3.65" length="2.34" shape="5707.97,4487.79 5707.15,4488.98 5706.35,4489.37"/>
    </edge>
    <edge id=":261137905_4" function="internal">
        <lane id=":261137905_4_0" index="0" disallow="tram rail_urban rail rail_electric rail_fast ship container cable_car subway aircraft wheelchair scooter drone" speed="3.65" length="2.34" shape="5706.35,4489.37 5705.55,4488.96 5704.77,4487.75"/>
    </edge>
    <edge id=":261137905_2" function="internal">
        <lane id=":261137905_2_0" index="0" disallow="tram rail_urban rail rail_electric rail_fast ship container cable_car subway aircraft wheelchair scooter drone" speed="22.22" length="0.10" shape="5704.77,4487.75 5704.77,4487.75"/>
    </edge>
    <edge id=":261137905_3" function="internal">
        <lane id=":261137905_3_0" index="0" disallow="tram rail_urban rail rail_electric rail_fast ship container cable_car subway aircraft wheelchair scooter drone" speed="3.65" length="2.34" shape="5704.77,4487.75 5705.59,4486.56 5706.39,4486.17"/>
    </edge>
    <edge id=":261137905_5" function="internal">
        <lane id=":261137905_5_0" index="0" disallow="tram rail_urban rail rail_electric rail_fast ship container cable_car subway aircraft wheelchair scooter drone" speed="3.65" length="2.34" shape="5706.39,4486.17 5707.19,4486.58 5707.97,4487.79"/>
    </edge>
    <edge id=":261144666_0" function="internal">
        <lane id=":261144666_0_0" index="0" disallow="tram rail_urban rail rail_electric rail_fast ship container cable_car subway aircraft wheelchair scooter drone" speed="22.22" length="0.38" shape="6855.76,5515.87 6855.66,5515.88 6855.59,5515.90 6855.52,5515.92 6855.41,5515.93"/>
        <lane id=":261144666_0_1" index="1" disallow="tram rail_urban rail rail_electric rail_fast ship container cable_car subway aircraft wheelchair scooter drone" speed="22.22" length="0.38" shape="6855.84,5512.67 6855.72,5512.68 6855.65,5512.70 6855.57,5512.73 6855.45,5512.73"/>
    </edge>
    <edge id=":261144666_2" function="internal">
        <lane id=":261144666_2_0" index="0" disallow="tram rail_urban rail rail_electric rail_fast ship container cable_car subway aircraft wheelchair scooter drone" speed="3.61" length="1.38" shape="6855.84,5512.67 6854.70,5511.88"/>
    </edge>
    <edge id=":261144666_6" function="internal">
        <lane id=":261144666_6_0" index="0" disallow="tram rail_urban rail rail_electric rail_fast ship container cable_car subway aircraft wheelchair scooter drone" speed="3.61" length="3.10" shape="6854.70,5511.88 6854.34,5511.10 6854.74,5510.34 6855.91,5509.60"/>
    </edge>
    <edge id=":261144666_3" function="internal">
        <lane id=":261144666_3_0" index="0" disallow="tram rail_urban rail rail_electric rail_fast ship container cable_car subway aircraft wheelchair scooter drone" speed="22.22" length="0.43" shape="6855.54,5506.33 6855.67,5506.35 6855.76,5506.37 6855.85,5506.39 6855.98,5506.40"/>
        <lane id=":261144666_3_1" index="1" disallow="tram rail_urban rail rail_electric rail_fast ship container cable_car subway aircraft wheelchair scooter drone" speed="22.22" length="0.43" shape="6855.50,5509.53 6855.62,5509.55 6855.70,5509.57 6855.79,5509.59 6855.91,5509.60"/>
    </edge>
    <edge id=":261144666_5" function="internal">
        <lane id=":261144666_5_0" index="0" disallow="tram rail_urban rail rail_electric rail_fast ship container cable_car subway aircraft wheelchair scooter drone" speed="3.65" length="2.34" shape="6855.50,5509.53 6856.69,5510.35 6857.08,5511.16"/>
    </edge>
    <edge id=":261144666_7" function="internal">
        <lane id=":261144666_7_0" index="0" disallow="tram rail_urban rail rail_electric rail_fast ship container cable_car subway aircraft wheelchair scooter drone" speed="3.65" length="2.34" shape="6857.08,5511.16 6856.66,5511.95 6855.45,5512.73"/>
    </edge>
    <edge id=":261149424_0" function="internal">
        <lane id=":261149424_0_0" index="0" disallow="tram rail_urban rail rail_electric rail_fast ship container cable_car subway aircraft wheelchair scooter drone" speed="22.22" length="0.10" shape="6601.35,5512.52 6601.35,5512.52"/>
        <lane id=":261149424_0_1" index="1" disallow="tram rail_urban rail rail_electric rail_fast ship container cable_car subway aircraft wheelchair scooter drone" speed="22.22" length="0.10" shape="6601.39,5509.32 6601.39,5509.32"/>
    </edge>
    <edge id=":261149424_2" function="internal">
        <lane id=":261149424_2_0" index="0" disallow="tram rail_urban rail rail_electric rail_fast ship container cable_car subway aircraft wheelchair scooter drone" speed="3.65" length="2.34" shape="6601.39,5509.32 6600.20,5508.50 6599.81,5507.70"/>
    </edge>
    <edge id=":261149424_6" function="internal">
        <lane id=":261149424_6_0" index="0" disallow="tram rail_urban rail rail_electric rail_fast ship container cable_car subway aircraft wheelchair scooter drone" speed="3.65" length="2.34" shape="6599.81,5507.70 6600.22,5506.90 6601.43,5506.12"/>
    </edge>
    <edge id=":261149424_3" function="internal">
        <lane id=":261149424_3_0" index="0" disallow="tram rail_urban rail rail_electric rail_fast ship container cable_car subway aircraft wheelchair scooter drone" speed="22.22" length="0.10" shape="6601.47,5502.92 6601.47,5502.92"/>
        <lane id=":261149424_3_1" index="1" disallow="tram rail_urban rail rail_electric rail_fast ship container cable_car subway aircraft wheelchair scooter drone" speed="22.22" length="0.10" shape="6601.43,5506.12 6601.43,5506.12"/>
    </edge>
    <edge id=":261149424_5" function="internal">
        <lane id=":261149424_5_0" index="0" disallow="tram rail_urban rail rail_electric rail_fast ship container cable_car subway aircraft wheelchair scooter drone" speed="3.65" length="2.34" shape="6601.43,5506.12 6602.62,5506.94 6603.01,5507.74"/>
    </edge>
    <edge id=":261149424_7" function="internal">
        <lane id=":261149424_7_0" index="0" disallow="tram rail_urban rail rail_electric rail_fast ship container cable_car subway aircraft wheelchair scooter drone" speed="3.65" length="2.34" shape="6603.01,5507.74 6602.60,5508.54 6601.39,5509.32"/>
    </edge>
    <edge id=":261161795_0" function="internal">
        <lane id=":261161795_0_0" index="0" disallow="tram rail_urban rail rail_electric rail_fast ship container cable_car subway aircraft wheelchair scooter drone" speed="22.22" length="0.10" shape="6195.65,5508.61 6195.65,5508.61"/>
        <lane id=":261161795_0_1" index="1" disallow="tram rail_urban rail rail_electric rail_fast ship container cable_car subway aircraft wheelchair scooter drone" speed="22.22" length="0.10" shape="6195.69,5505.41 6195.69,5505.41"/>
    </edge>
    <edge id=":261161795_2" function="internal">
        <lane id=":261161795_2_0" index="0" disallow="tram rail_urban rail rail_electric rail_fast ship container cable_car subway aircraft wheelchair scooter drone" speed="3.65" length="2.34" shape="6195.69,5505.41 6194.50,5504.59 6194.11,5503.79"/>
    </edge>
    <edge id=":261161795_6" function="internal">
        <lane id=":261161795_6_0" index="0" disallow="tram rail_urban rail rail_electric rail_fast ship container cable_car subway aircraft wheelchair scooter drone" speed="3.65" length="2.34" shape="6194.11,5503.79 6194.52,5502.99 6195.73,5502.21"/>
    </edge>
    <edge id=":261161795_3" function="internal">
        <lane id=":261161795_3_0" index="0" disallow="tram rail_urban rail rail_electric rail_fast ship container cable_car subway aircraft wheelchair scooter drone" speed="22.22" length="0.10" shape="6195.77,5499.01 6195.77,5499.01"/>
        <lane id=":261161795_3_1" index="1" disallow="tram rail_urban rail rail_electric rail_fast ship container cable_car subway aircraft wheelchair scooter drone" speed="22.22" length="0.10" shape="6195.73,5502.21 6195.73,5502.21"/>
    </edge>
    <edge id=":261161795_5" function="internal">
        <lane id=":261161795_5_0" index="0" disallow="tram rail_urban rail rail_electric rail_fast ship container cable_car subway aircraft wheelchair scooter drone" speed="3.65" length="2.34" shape="6195.73,5502.21 6196.92,5503.03 6197.31,5503.83"/>
    </edge>
    <edge id=":261161795_7" function="internal">
        <lane id=":261161795_7_0" index="0" disallow="tram rail_urban rail rail_electric rail_fast ship container cable_car subway aircraft wheelchair scooter drone" speed="3.65" length="2.34" shape="6197.31,5503.83 6196.90,5504.63 6195.69,5505.41"/>
    </edge>
    <edge id=":261162174_0" function="internal">
        <lane id=":261162174_0_0" index="0" disallow="tram rail_urban rail rail_electric rail_fast ship container cable_car subway aircraft wheelchair scooter drone" speed="22.22" length="0.10" shape="5995.31,5506.05 5995.31,5506.05"/>
        <lane id=":261162174_0_1" index="1" disallow="tram rail_urban rail rail_electric rail_fast ship container cable_car subway aircraft wheelchair scooter drone" speed="22.22" length="0.10" shape="5995.35,5502.85 5995.35,5502.85"/>
    </edge>
    <edge id=":261162174_2" function="internal">
        <lane id=":261162174_2_0" index="0" disallow="tram rail_urban rail rail_electric rail_fast ship container cable_car subway aircraft wheelchair scooter drone" speed="3.65" length="2.34" shape="5995.35,5502.85 5994.16,5502.03 5993.77,5501.23"/>
    </edge>
    <edge id=":261162174_6" function="internal">
        <lane id=":261162174_6_0" index="0" disallow="tram rail_urban rail rail_electric rail_fast ship container cable_car subway aircraft wheelchair scooter drone" speed="3.65" length="2.34" shape="5993.77,5501.23 5994.18,5500.43 5995.39,5499.65"/>
    </edge>
    <edge id=":261162174_3" function="internal">
        <lane id=":261162174_3_0" index="0" disallow="tram rail_urban rail rail_electric rail_fast ship container cable_car subway aircraft wheelchair scooter drone" speed="22.22" length="0.10" shape="5995.43,5496.45 5995.43,5496.45"/>
        <lane id=":261162174_3_1" index="1" disallow="tram rail_urban rail rail_electric rail_fast ship container cable_car subway aircraft wheelchair scooter drone" speed="22.22" length="0.10" shape="5995.39,5499.65 5995.39,5499.65"/>
    </edge>
    <edge id=":261162174_5" function="internal">
        <lane id=":261162174_5_0" index="0" disallow="tram rail_urban rail rail_electric rail_fast ship container cable_car subway aircraft wheelchair scooter drone" speed="3.65" length="2.34" shape="5995.39,5499.65 5996.58,5500.47 5996.97,5501.27"/>
    </edge>
    <edge id=":261162174_7" function="internal">
        <lane id=":261162174_7_0" index="0" disallow="tram rail_urban rail rail_electric rail_fast ship container cable_car subway aircraft wheelchair scooter drone" speed="3.65" length="2.34" shape="5996.97,5501.27 5996.56,5502.07 5995.35,5502.85"/>
    </edge>
    <edge id=":261168462_0" function="internal">
        <lane id=":261168462_0_0" index="0" disallow="tram rail_urban rail rail_electric rail_fast ship container cable_car subway aircraft wheelchair scooter drone" speed="6.53" length="8.84" shape="8007.81,5024.08 8010.21,5023.77 8011.96,5022.77 8013.06,5021.10 8013.51,5018.75"/>
    </edge>
    <edge id=":261168462_1" function="internal">
        <lane id=":261168462_1_0" index="0" disallow="tram rail_urban rail rail_electric rail_fast ship container cable_car subway aircraft wheelchair scooter drone" speed="27.78" length="10.73" shape="8013.20,5029.59 8013.51,5018.75"/>
        <lane id=":261168462_1_1" index="1" disallow="tram rail_urban rail rail_electric rail_fast ship container cable_car subway aircraft wheelchair scooter drone" speed="27.78" length="10.73" shape="8016.40,5029.62 8016.71,5018.90"/>
        <lane id=":261168462_1_2" index="2" disallow="tram rail_urban rail rail_electric rail_fast ship container cable_car subway aircraft wheelchair scooter drone" speed="27.78" length="10.73" shape="8019.60,5029.66 8019.91,5019.05"/>
    </edge>
    <edge id=":261168463_0" function="internal">
        <lane id=":261168463_0_0" index="0" disallow="tram rail_urban rail rail_electric rail_fast ship container cable_car subway aircraft wheelchair scooter drone" speed="6.46" length="9.03" shape="7919.38,5017.57 7919.66,5020.04 7920.66,5021.81 7922.39,5022.88 7924.84,5023.26"/>
    </edge>
    <edge id=":261168463_1" function="internal">
        <lane id=":261168463_1_0" index="0" disallow="tram rail_urban rail rail_electric rail_fast ship container cable_car subway aircraft wheelchair scooter drone" speed="13.89" length="11.23" shape="7919.38,5017.57 7919.15,5028.80"/>
    </edge>
    <edge id=":261168468_0" function="internal">
        <lane id=":261168468_0_0" index="0" disallow="tram rail_urban rail rail_electric rail_fast ship container cable_car subway aircraft wheelchair scooter drone" speed="22.22" length="0.10" shape="5701.54,4991.84 5701.54,4991.84"/>
    </edge>
    <edge id=":261168468_1" function="internal">
        <lane id=":261168468_1_0" index="0" disallow="tram rail_urban rail rail_electric rail_fast ship container cable_car subway aircraft wheelchair scooter drone" speed="3.65" length="2.34" shape="5701.54,4991.84 5700.72,4993.03 5699.92,4993.42"/>
    </edge>
    <edge id=":261168468_4" function="internal">
        <lane id=":261168468_4_0" index="0" disallow="tram rail_urban rail rail_electric rail_fast ship container cable_car subway aircraft wheelchair scooter drone" speed="3.65" length="2.34" shape="5699.92,4993.42 5699.12,4993.01 5698.34,4991.80"/>
    </edge>
    <edge id=":261168468_2" function="internal">
        <lane id=":261168468_2_0" index="0" disallow="tram rail_urban rail rail_electric rail_fast ship container cable_car subway aircraft wheelchair scooter drone" speed="22.22" length="0.10" shape="5698.34,4991.80 5698.34,4991.80"/>
    </edge>
    <edge id=":261168468_3" function="internal">
        <lane id=":261168468_3_0" index="0" disallow="tram rail_urban rail rail_electric rail_fast ship container cable_car subway aircraft wheelchair scooter drone" speed="3.65" length="2.34" shape="5698.34,4991.80 5699.16,4990.61 5699.96,4990.22"/>
    </edge>
    <edge id=":261168468_5" function="internal">
        <lane id=":261168468_5_0" index="0" disallow="tram rail_urban rail rail_electric rail_fast ship container cable_car subway aircraft wheelchair scooter drone" speed="3.65" length="2.34" shape="5699.96,4990.22 5700.76,4990.63 5701.54,4991.84"/>
    </edge>
    <edge id=":261174045_0" function="internal">
        <lane id=":261174045_0_0" index="0" disallow="tram rail_urban rail rail_electric rail_fast ship container cable_car subway aircraft wheelchair scooter drone" speed="6.55" length="9.12" shape="6528.22,4097.48 6525.75,4097.81 6523.98,4098.85 6522.89,4100.61 6522.50,4103.08"/>
    </edge>
    <edge id=":261174045_1" function="internal">
        <lane id=":261174045_1_0" index="0" disallow="tram rail_urban rail rail_electric rail_fast ship container cable_car subway aircraft wheelchair scooter drone" speed="22.22" length="20.84" shape="6528.22,4097.48 6507.39,4097.24"/>